R1 0 1 5
V1 1 2 0 1 1.25 0
V2 2 3 0 1 1.25 0
V3 2 4 0 1 1.25 0
R2 4 0 5
R3 3 0 5
dt 0.01
dv 0.01
di 0.1
.tran 1