V1 0 1 1 0 0 0
V2 1 7 0 1 1.25 0
R1 7 8 5
R2 8 9 5
L1 1 2 5
C1 2 8 1
I1 9 3 2 0 0 0
G1 3 2 0 0 2
R3 3 0 5
dt 0.001
dv 0.001
di 0.1
.tran 1
