V1 0 1 5 0 0 0
V2 1 7 5 0 0 0
dt 0.01
dv 0.1
di 0.1
.tran 1
