V1 0 1 1 0 0 0
R1 1 2 1k
C2 2 0 1m
dt 0.001
dv 0.1u
di 100u
.tran 1
