V1 0 1 0 1 1.25 0
R1 1 2 5
R2 2 0 5
dt 0.01
dv 0.01
di 0.1
.tran 1