I1 0 1 1 0 0 0
R1 1 0 10
L1 1 0 1
dt 0.01
dv 0.01
di 0.1
.tran 1
